# generated using pymatgen
data_ScB4Ir3
_symmetry_space_group_name_H-M   'P 1'
_cell_length_a   7.63071985
_cell_length_b   7.63071985
_cell_length_c   3.46734916
_cell_angle_alpha   90.00000000
_cell_angle_beta   90.00000000
_cell_angle_gamma   119.99999998
_symmetry_Int_Tables_number   1
_chemical_formula_structural   ScB4Ir3
_chemical_formula_sum   'Sc2 B8 Ir6'
_cell_volume   174.84741983
_cell_formula_units_Z   2
loop_
 _symmetry_equiv_pos_site_id
 _symmetry_equiv_pos_as_xyz
  1  'x, y, z'
loop_
 _atom_site_type_symbol
 _atom_site_label
 _atom_site_symmetry_multiplicity
 _atom_site_fract_x
 _atom_site_fract_y
 _atom_site_fract_z
 _atom_site_occupancy
  B  B1  1  0.598382  0.548241  0.750000  1
  B  B2  1  0.050141  0.598382  0.250000  1
  B  B3  1  0.548241  0.949859  0.250000  1
  B  B4  1  0.451759  0.050141  0.750000  1
  B  B5  1  0.000000  0.000000  0.000000  1
  B  B6  1  0.401618  0.451759  0.250000  1
  B  B7  1  0.000000  0.000000  0.500000  1
  B  B8  1  0.949859  0.401618  0.750000  1
  Sc  Sc9  1  0.333333  0.666667  0.750000  1
  Sc  Sc10  1  0.666667  0.333333  0.250000  1
  Ir  Ir11  1  0.746546  0.076031  0.750000  1
  Ir  Ir12  1  0.329485  0.253454  0.750000  1
  Ir  Ir13  1  0.670515  0.746546  0.250000  1
  Ir  Ir14  1  0.076031  0.329485  0.250000  1
  Ir  Ir15  1  0.253454  0.923969  0.250000  1
  Ir  Ir16  1  0.923969  0.670515  0.750000  1
