# generated using pymatgen
data_BiPbClO2
_symmetry_space_group_name_H-M   'P 1'
_cell_length_a   5.65433072
_cell_length_b   5.71564665
_cell_length_c   6.95597345
_cell_angle_alpha   114.25789493
_cell_angle_beta   90.00000000
_cell_angle_gamma   90.00000000
_symmetry_Int_Tables_number   1
_chemical_formula_structural   BiPbClO2
_chemical_formula_sum   'Bi2 Pb2 Cl2 O4'
_cell_volume   204.95524700
_cell_formula_units_Z   2
loop_
 _symmetry_equiv_pos_site_id
 _symmetry_equiv_pos_as_xyz
  1  'x, y, z'
loop_
 _atom_site_type_symbol
 _atom_site_label
 _atom_site_symmetry_multiplicity
 _atom_site_fract_x
 _atom_site_fract_y
 _atom_site_fract_z
 _atom_site_occupancy
  O  O1  1  0.500000  0.237727  0.000000  1
  O  O2  1  0.000000  0.762273  0.000000  1
  O  O3  1  0.500000  0.762273  0.000000  1
  O  O4  1  0.000000  0.237727  0.000000  1
  Cl  Cl5  1  0.750000  0.746066  0.492132  1
  Cl  Cl6  1  0.250000  0.253934  0.507868  1
  Pb  Pb7  1  0.750000  0.393229  0.786458  1
  Pb  Pb8  1  0.250000  0.606771  0.213542  1
  Bi  Bi9  1  0.750000  0.087571  0.175142  1
  Bi  Bi10  1  0.250000  0.912429  0.824858  1
