# generated using pymatgen
data_Ho(AlCl4)3
_symmetry_space_group_name_H-M   'P 1'
_cell_length_a   10.80024052
_cell_length_b   10.80024051
_cell_length_c   15.98017566
_cell_angle_alpha   90.00000000
_cell_angle_beta   90.00000000
_cell_angle_gamma   120.00000002
_symmetry_Int_Tables_number   1
_chemical_formula_structural   Ho(AlCl4)3
_chemical_formula_sum   'Ho3 Al9 Cl36'
_cell_volume   1614.28062707
_cell_formula_units_Z   3
loop_
 _symmetry_equiv_pos_site_id
 _symmetry_equiv_pos_as_xyz
  1  'x, y, z'
loop_
 _atom_site_type_symbol
 _atom_site_label
 _atom_site_symmetry_multiplicity
 _atom_site_fract_x
 _atom_site_fract_y
 _atom_site_fract_z
 _atom_site_occupancy
  Al  Al1  1  0.731335  0.268665  0.833333  1
  Al  Al2  1  0.129039  0.763002  0.602991  1
  Al  Al3  1  0.236998  0.366037  0.936324  1
  Al  Al4  1  0.633963  0.870961  0.269657  1
  Al  Al5  1  0.731335  0.462669  0.166667  1
  Al  Al6  1  0.537331  0.268665  0.500000  1
  Al  Al7  1  0.129039  0.366037  0.397009  1
  Al  Al8  1  0.633963  0.763002  0.730343  1
  Al  Al9  1  0.236998  0.870961  0.063676  1
  Cl  Cl10  1  1.008033  0.840657  0.543619  1
  Cl  Cl11  1  0.832624  -0.008033  0.210286  1
  Cl  Cl12  1  0.159343  0.167376  0.876953  1
  Cl  Cl13  1  0.789713  0.590349  0.279762  1
  Cl  Cl14  1  0.409651  0.199364  0.613096  1
  Cl  Cl15  1  0.800636  0.210287  0.946429  1
  Cl  Cl16  1  0.409651  0.210287  0.386904  1
  Cl  Cl17  1  0.800636  0.590349  0.053571  1
  Cl  Cl18  1  0.789713  0.199364  0.720238  1
  Cl  Cl19  1  0.226652  0.346007  0.278425  1
  Cl  Cl20  1  0.653993  0.880645  0.611758  1
  Cl  Cl21  1  0.119355  0.773348  0.945092  1
  Cl  Cl22  1  0.653993  0.773348  0.388242  1
  Cl  Cl23  1  0.119355  0.346007  0.054908  1
  Cl  Cl24  1  0.226652  0.880645  0.721575  1
  Cl  Cl25  1  0.503449  0.660829  0.205033  1
  Cl  Cl26  1  0.339171  0.842620  0.538367  1
  Cl  Cl27  1  0.157380  0.496551  0.871700  1
  Cl  Cl28  1  0.339171  0.496551  0.461633  1
  Cl  Cl29  1  0.157380  0.660829  0.128300  1
  Cl  Cl30  1  0.503449  0.842620  0.794967  1
  Cl  Cl31  1  0.661817  0.497040  0.482056  1
  Cl  Cl32  1  0.502960  0.164777  0.815390  1
  Cl  Cl33  1  0.835223  0.338183  0.148723  1
  Cl  Cl34  1  0.502960  0.338183  0.184610  1
  Cl  Cl35  1  0.835223  0.497040  0.851277  1
  Cl  Cl36  1  0.661817  0.164777  0.517944  1
  Cl  Cl37  1  0.031433  0.490391  0.376489  1
  Cl  Cl38  1  0.509609  0.541042  0.709822  1
  Cl  Cl39  1  0.458958  0.968567  0.043155  1
  Cl  Cl40  1  0.509609  0.968567  0.290178  1
  Cl  Cl41  1  0.458958  0.490391  0.956845  1
  Cl  Cl42  1  0.031433  0.541042  0.623511  1
  Cl  Cl43  1  1.008033  0.167376  0.456381  1
  Cl  Cl44  1  0.832624  0.840657  0.789714  1
  Cl  Cl45  1  0.159343  -0.008033  0.123047  1
  Ho  Ho46  1  0.990922  0.495461  0.000000  1
  Ho  Ho47  1  0.504539  0.009078  0.666667  1
  Ho  Ho48  1  0.504539  0.495461  0.333333  1
