# generated using pymatgen
data_GdSF
_symmetry_space_group_name_H-M   'P 1'
_cell_length_a   3.84935233
_cell_length_b   3.84935233
_cell_length_c   6.91948755
_cell_angle_alpha   90.00000000
_cell_angle_beta   90.00000000
_cell_angle_gamma   90.00000000
_symmetry_Int_Tables_number   1
_chemical_formula_structural   GdSF
_chemical_formula_sum   'Gd2 S2 F2'
_cell_volume   102.52959922
_cell_formula_units_Z   2
loop_
 _symmetry_equiv_pos_site_id
 _symmetry_equiv_pos_as_xyz
  1  'x, y, z'
loop_
 _atom_site_type_symbol
 _atom_site_label
 _atom_site_symmetry_multiplicity
 _atom_site_fract_x
 _atom_site_fract_y
 _atom_site_fract_z
 _atom_site_occupancy
  F  F1  1  0.250000  0.750000  0.000000  1
  F  F2  1  0.750000  0.250000  0.000000  1
  S  S3  1  0.250000  0.250000  0.644217  1
  S  S4  1  0.750000  0.750000  0.355783  1
  Gd  Gd5  1  0.750000  0.750000  0.769514  1
  Gd  Gd6  1  0.250000  0.250000  0.230486  1
