# generated using pymatgen
data_CsYO2
_symmetry_space_group_name_H-M   'P 1'
_cell_length_a   3.56759387
_cell_length_b   3.56759354
_cell_length_c   13.75331524
_cell_angle_alpha   90.00000000
_cell_angle_beta   90.00000000
_cell_angle_gamma   120.00000300
_symmetry_Int_Tables_number   1
_chemical_formula_structural   CsYO2
_chemical_formula_sum   'Cs2 Y2 O4'
_cell_volume   151.59636703
_cell_formula_units_Z   2
loop_
 _symmetry_equiv_pos_site_id
 _symmetry_equiv_pos_as_xyz
  1  'x, y, z'
loop_
 _atom_site_type_symbol
 _atom_site_label
 _atom_site_symmetry_multiplicity
 _atom_site_fract_x
 _atom_site_fract_y
 _atom_site_fract_z
 _atom_site_occupancy
  Cs  Cs1  1  0.666667  0.333333  0.500000  1
  Cs  Cs2  1  0.000000  0.000000  0.000000  1
  Y  Y3  1  0.333333  0.666667  0.249644  1
  Y  Y4  1  0.333333  0.666667  0.750356  1
  O  O5  1  0.666667  0.333333  0.167060  1
  O  O6  1  0.666667  0.333333  0.832940  1
  O  O7  1  0.000000  0.000000  0.332302  1
  O  O8  1  0.000000  0.000000  0.667698  1
