# generated using pymatgen
data_HoTe2ClO5
_symmetry_space_group_name_H-M   'P 1'
_cell_length_a   7.66287595
_cell_length_b   8.01516256
_cell_length_c   10.41224433
_cell_angle_alpha   100.79590085
_cell_angle_beta   99.18848132
_cell_angle_gamma   91.96897736
_symmetry_Int_Tables_number   1
_chemical_formula_structural   HoTe2ClO5
_chemical_formula_sum   'Ho4 Te8 Cl4 O20'
_cell_volume   618.76850072
_cell_formula_units_Z   4
loop_
 _symmetry_equiv_pos_site_id
 _symmetry_equiv_pos_as_xyz
  1  'x, y, z'
loop_
 _atom_site_type_symbol
 _atom_site_label
 _atom_site_symmetry_multiplicity
 _atom_site_fract_x
 _atom_site_fract_y
 _atom_site_fract_z
 _atom_site_occupancy
  Ho  Ho1  1  0.261990  0.511933  0.052722  1
  Ho  Ho2  1  0.754643  0.006995  0.020379  1
  Ho  Ho3  1  0.738010  0.488067  0.947278  1
  Ho  Ho4  1  0.245357  0.993005  0.979621  1
  Te  Te5  1  0.054903  0.244751  0.741719  1
  Te  Te6  1  0.945097  0.755249  0.258281  1
  Te  Te7  1  0.328829  0.622981  0.740598  1
  Te  Te8  1  0.503571  0.076141  0.737644  1
  Te  Te9  1  0.123409  0.207548  0.262763  1
  Te  Te10  1  0.671171  0.377019  0.259402  1
  Te  Te11  1  0.496429  0.923859  0.262356  1
  Te  Te12  1  0.876591  0.792452  0.737237  1
  Cl  Cl13  1  0.670134  0.425505  0.661440  1
  Cl  Cl14  1  0.329866  0.574495  0.338560  1
  Cl  Cl15  1  0.837085  0.107058  0.416899  1
  Cl  Cl16  1  0.162915  0.892942  0.583101  1
  O  O17  1  0.825385  0.586985  0.340165  1
  O  O18  1  0.438946  0.544924  0.892247  1
  O  O19  1  0.784908  0.743618  0.887729  1
  O  O20  1  0.671723  0.913698  0.663234  1
  O  O21  1  0.561054  0.455076  0.107753  1
  O  O22  1  0.275215  0.195843  0.843327  1
  O  O23  1  0.724785  0.804157  0.156673  1
  O  O24  1  0.987969  0.597962  0.108834  1
  O  O25  1  0.845182  0.275293  0.158304  1
  O  O26  1  0.667833  0.202634  0.884920  1
  O  O27  1  0.012031  0.402038  0.891166  1
  O  O28  1  0.174615  0.413015  0.659835  1
  O  O29  1  0.328277  0.086302  0.336766  1
  O  O30  1  0.533195  0.076621  0.142384  1
  O  O31  1  0.970132  0.006803  0.855779  1
  O  O32  1  0.466805  0.923379  0.857616  1
  O  O33  1  0.215092  0.256382  0.112271  1
  O  O34  1  0.154818  0.724707  0.841696  1
  O  O35  1  0.332167  0.797366  0.115080  1
  O  O36  1  0.029868  0.993197  0.144221  1
