# generated using pymatgen
data_SXeO3F2
_symmetry_space_group_name_H-M   'P 1'
_cell_length_a   10.27659067
_cell_length_b   10.41526173
_cell_length_c   10.55297441
_cell_angle_alpha   90.00000000
_cell_angle_beta   90.00000000
_cell_angle_gamma   90.00000000
_symmetry_Int_Tables_number   1
_chemical_formula_structural   SXeO3F2
_chemical_formula_sum   'S8 Xe8 O24 F16'
_cell_volume   1129.52053620
_cell_formula_units_Z   8
loop_
 _symmetry_equiv_pos_site_id
 _symmetry_equiv_pos_as_xyz
  1  'x, y, z'
loop_
 _atom_site_type_symbol
 _atom_site_label
 _atom_site_symmetry_multiplicity
 _atom_site_fract_x
 _atom_site_fract_y
 _atom_site_fract_z
 _atom_site_occupancy
  S  S1  1  0.536929  0.227151  0.485174  1
  S  S2  1  0.536929  0.272849  0.985174  1
  S  S3  1  0.963071  0.727151  0.485174  1
  S  S4  1  0.036929  0.227151  0.014826  1
  S  S5  1  0.463071  0.772849  0.514826  1
  S  S6  1  0.463071  0.727151  0.014826  1
  S  S7  1  0.963071  0.772849  0.985174  1
  S  S8  1  0.036929  0.272849  0.514826  1
  Xe  Xe9  1  0.674614  0.051873  0.167205  1
  Xe  Xe10  1  0.825386  0.551873  0.167205  1
  Xe  Xe11  1  0.825386  0.948127  0.667205  1
  Xe  Xe12  1  0.174614  0.448127  0.832795  1
  Xe  Xe13  1  0.325386  0.948127  0.832795  1
  Xe  Xe14  1  0.674614  0.448127  0.667205  1
  Xe  Xe15  1  0.174614  0.051873  0.332795  1
  Xe  Xe16  1  0.325386  0.551873  0.332795  1
  O  O17  1  0.020582  0.138683  0.457083  1
  O  O18  1  0.832270  0.680011  0.488574  1
  O  O19  1  0.332270  0.819989  0.511426  1
  O  O20  1  0.461035  0.221216  0.371316  1
  O  O21  1  0.038964  0.721216  0.371316  1
  O  O22  1  0.479418  0.861317  0.957083  1
  O  O23  1  0.538964  0.778784  0.628684  1
  O  O24  1  0.667730  0.319989  0.988574  1
  O  O25  1  0.961036  0.278784  0.628684  1
  O  O26  1  0.538964  0.721216  0.128684  1
  O  O27  1  0.479418  0.638683  0.457083  1
  O  O28  1  0.038964  0.778784  0.871316  1
  O  O29  1  0.461035  0.278784  0.871316  1
  O  O30  1  0.520582  0.361317  0.542917  1
  O  O31  1  0.961036  0.221216  0.128684  1
  O  O32  1  0.167730  0.319989  0.511426  1
  O  O33  1  0.832270  0.819989  0.988574  1
  O  O34  1  0.020582  0.361317  0.957083  1
  O  O35  1  0.520582  0.138683  0.042917  1
  O  O36  1  0.979418  0.861317  0.542917  1
  O  O37  1  0.332270  0.680011  0.011426  1
  O  O38  1  0.167730  0.180011  0.011426  1
  O  O39  1  0.667730  0.180011  0.488574  1
  O  O40  1  0.979418  0.638683  0.042917  1
  F  F41  1  0.541558  0.641419  0.914134  1
  F  F42  1  0.189481  0.461054  0.221700  1
  F  F43  1  0.458442  0.358581  0.085866  1
  F  F44  1  0.810519  0.961054  0.278300  1
  F  F45  1  0.689481  0.461054  0.278300  1
  F  F46  1  0.189481  0.038946  0.721700  1
  F  F47  1  0.689481  0.038946  0.778300  1
  F  F48  1  0.041558  0.641419  0.585866  1
  F  F49  1  0.958442  0.358581  0.414134  1
  F  F50  1  0.541558  0.858581  0.414134  1
  F  F51  1  0.310519  0.961054  0.221700  1
  F  F52  1  0.810519  0.538946  0.778300  1
  F  F53  1  0.458442  0.141419  0.585866  1
  F  F54  1  0.310519  0.538946  0.721700  1
  F  F55  1  0.041558  0.858581  0.085866  1
  F  F56  1  0.958442  0.141419  0.914134  1
