# generated using pymatgen
data_LaSi2Ru3
_symmetry_space_group_name_H-M   'P 1'
_cell_length_a   5.72202814
_cell_length_b   5.72202799
_cell_length_c   3.58390683
_cell_angle_alpha   90.00000000
_cell_angle_beta   90.00000000
_cell_angle_gamma   120.00000085
_symmetry_Int_Tables_number   1
_chemical_formula_structural   LaSi2Ru3
_chemical_formula_sum   'La1 Si2 Ru3'
_cell_volume   101.62189898
_cell_formula_units_Z   1
loop_
 _symmetry_equiv_pos_site_id
 _symmetry_equiv_pos_as_xyz
  1  'x, y, z'
loop_
 _atom_site_type_symbol
 _atom_site_label
 _atom_site_symmetry_multiplicity
 _atom_site_fract_x
 _atom_site_fract_y
 _atom_site_fract_z
 _atom_site_occupancy
  La  La1  1  0.000000  0.000000  0.000000  1
  Si  Si2  1  0.666667  0.333333  0.000000  1
  Si  Si3  1  0.333333  0.666667  0.000000  1
  Ru  Ru4  1  0.500000  0.000000  0.500000  1
  Ru  Ru5  1  0.000000  0.500000  0.500000  1
  Ru  Ru6  1  0.500000  0.500000  0.500000  1
