# generated using pymatgen
data_Tb2Ni17
_symmetry_space_group_name_H-M   'P 1'
_cell_length_a   8.27355179
_cell_length_b   8.27355169
_cell_length_c   8.00687704
_cell_angle_alpha   90.00000000
_cell_angle_beta   90.00000000
_cell_angle_gamma   120.00000035
_symmetry_Int_Tables_number   1
_chemical_formula_structural   Tb2Ni17
_chemical_formula_sum   'Tb4 Ni34'
_cell_volume   474.65467623
_cell_formula_units_Z   2
loop_
 _symmetry_equiv_pos_site_id
 _symmetry_equiv_pos_as_xyz
  1  'x, y, z'
loop_
 _atom_site_type_symbol
 _atom_site_label
 _atom_site_symmetry_multiplicity
 _atom_site_fract_x
 _atom_site_fract_y
 _atom_site_fract_z
 _atom_site_occupancy
  Tb  Tb1  1  0.000000  0.000000  0.250000  1
  Tb  Tb2  1  0.666667  0.333333  0.250000  1
  Tb  Tb3  1  0.000000  0.000000  0.750000  1
  Tb  Tb4  1  0.333333  0.666667  0.750000  1
  Ni  Ni5  1  0.165687  0.331373  0.520591  1
  Ni  Ni6  1  0.668627  0.834313  0.520591  1
  Ni  Ni7  1  0.628941  0.956880  0.250000  1
  Ni  Ni8  1  0.666667  0.333333  0.602085  1
  Ni  Ni9  1  0.371059  0.043120  0.750000  1
  Ni  Ni10  1  0.331373  0.165687  0.479409  1
  Ni  Ni11  1  0.331373  0.165687  0.020591  1
  Ni  Ni12  1  0.327939  0.956880  0.250000  1
  Ni  Ni13  1  0.500000  0.000000  0.000000  1
  Ni  Ni14  1  0.165687  0.834313  0.979409  1
  Ni  Ni15  1  0.327939  0.371059  0.250000  1
  Ni  Ni16  1  0.672061  0.043120  0.750000  1
  Ni  Ni17  1  0.333333  0.666667  0.397915  1
  Ni  Ni18  1  0.834313  0.165687  0.479409  1
  Ni  Ni19  1  0.500000  0.000000  0.500000  1
  Ni  Ni20  1  0.000000  0.500000  0.500000  1
  Ni  Ni21  1  0.333333  0.666667  0.102084  1
  Ni  Ni22  1  0.956880  0.628941  0.750000  1
  Ni  Ni23  1  0.956880  0.327939  0.750000  1
  Ni  Ni24  1  0.000000  0.500000  0.000000  1
  Ni  Ni25  1  0.834313  0.668627  0.479409  1
  Ni  Ni26  1  0.834313  0.165687  0.020591  1
  Ni  Ni27  1  0.371059  0.327939  0.750000  1
  Ni  Ni28  1  0.834313  0.668627  0.020591  1
  Ni  Ni29  1  0.165687  0.834313  0.520591  1
  Ni  Ni30  1  0.500000  0.500000  0.500000  1
  Ni  Ni31  1  0.165687  0.331373  0.979409  1
  Ni  Ni32  1  0.672061  0.628941  0.750000  1
  Ni  Ni33  1  0.666667  0.333333  0.897915  1
  Ni  Ni34  1  0.628941  0.672061  0.250000  1
  Ni  Ni35  1  0.043120  0.371059  0.250000  1
  Ni  Ni36  1  0.668627  0.834313  0.979409  1
  Ni  Ni37  1  0.043120  0.672061  0.250000  1
  Ni  Ni38  1  0.500000  0.500000  0.000000  1
