# generated using pymatgen
data_Ba(NiP2)2
_symmetry_space_group_name_H-M   'P 1'
_cell_length_a   5.48864055
_cell_length_b   5.48864047
_cell_length_c   5.48864079
_cell_angle_alpha   105.34944032
_cell_angle_beta   107.21509902
_cell_angle_gamma   116.06146012
_symmetry_Int_Tables_number   1
_chemical_formula_structural   Ba(NiP2)2
_chemical_formula_sum   'Ba1 Ni2 P4'
_cell_volume   125.97679656
_cell_formula_units_Z   1
loop_
 _symmetry_equiv_pos_site_id
 _symmetry_equiv_pos_as_xyz
  1  'x, y, z'
loop_
 _atom_site_type_symbol
 _atom_site_label
 _atom_site_symmetry_multiplicity
 _atom_site_fract_x
 _atom_site_fract_y
 _atom_site_fract_z
 _atom_site_occupancy
  Ba  Ba1  1  0.000000  0.000000  0.000000  1
  Ni  Ni2  1  0.261672  0.761672  0.500000  1
  Ni  Ni3  1  0.738328  0.238328  0.500000  1
  P  P4  1  0.254485  0.500000  0.754485  1
  P  P5  1  0.745515  0.500000  0.245515  1
  P  P6  1  0.500000  0.739326  0.239326  1
  P  P7  1  0.500000  0.260674  0.760674  1
