# generated using pymatgen
data_RbP(HO2)2
_symmetry_space_group_name_H-M   'P 1'
_cell_length_a   6.56492943
_cell_length_b   6.56492943
_cell_length_c   6.56492943
_cell_angle_alpha   108.94168522
_cell_angle_beta   108.94168522
_cell_angle_gamma   110.53556294
_symmetry_Int_Tables_number   1
_chemical_formula_structural   RbP(HO2)2
_chemical_formula_sum   'Rb2 P2 H4 O8'
_cell_volume   217.74873534
_cell_formula_units_Z   2
loop_
 _symmetry_equiv_pos_site_id
 _symmetry_equiv_pos_as_xyz
  1  'x, y, z'
loop_
 _atom_site_type_symbol
 _atom_site_label
 _atom_site_symmetry_multiplicity
 _atom_site_fract_x
 _atom_site_fract_y
 _atom_site_fract_z
 _atom_site_occupancy
  Rb  Rb1  1  0.250000  0.750000  0.500000  1
  Rb  Rb2  1  0.500000  0.500000  0.000000  1
  P  P3  1  0.750000  0.250000  0.500000  1
  P  P4  1  0.000000  0.000000  0.000000  1
  H  H5  1  0.740133  0.125000  0.115133  1
  H  H6  1  0.009867  0.625000  0.884867  1
  H  H7  1  0.375000  0.259867  0.384867  1
  H  H8  1  0.875000  0.990133  0.615133  1
  O  O9  1  0.727503  0.276209  0.267603  1
  O  O10  1  0.741395  0.973791  0.951295  1
  O  O11  1  0.008605  0.459900  0.732397  1
  O  O12  1  0.022497  0.790100  0.048705  1
  O  O13  1  0.540100  0.272497  0.548705  1
  O  O14  1  0.026209  0.977503  0.767603  1
  O  O15  1  0.723791  0.991395  0.451295  1
  O  O16  1  0.209900  0.258605  0.232397  1
