# generated using pymatgen
data_Li2SnP2O7
_symmetry_space_group_name_H-M   'P 1'
_cell_length_a   8.69417323
_cell_length_b   5.09438061
_cell_length_c   15.08748635
_cell_angle_alpha   90.00000000
_cell_angle_beta   111.36120190
_cell_angle_gamma   90.00000000
_symmetry_Int_Tables_number   1
_chemical_formula_structural   Li2SnP2O7
_chemical_formula_sum   'Li8 Sn4 P8 O28'
_cell_volume   622.33957843
_cell_formula_units_Z   4
loop_
 _symmetry_equiv_pos_site_id
 _symmetry_equiv_pos_as_xyz
  1  'x, y, z'
loop_
 _atom_site_type_symbol
 _atom_site_label
 _atom_site_symmetry_multiplicity
 _atom_site_fract_x
 _atom_site_fract_y
 _atom_site_fract_z
 _atom_site_occupancy
  Li  Li1  1  0.004775  0.749252  0.678833  1
  Li  Li2  1  0.004775  0.750748  0.178833  1
  Li  Li3  1  0.587557  0.267828  0.825436  1
  Li  Li4  1  0.412443  0.767828  0.674564  1
  Li  Li5  1  0.587557  0.232172  0.325436  1
  Li  Li6  1  0.412443  0.732172  0.174564  1
  Li  Li7  1  0.995225  0.249252  0.821167  1
  Li  Li8  1  0.995225  0.250748  0.321167  1
  Sn  Sn9  1  0.285276  0.724567  0.884893  1
  Sn  Sn10  1  0.285276  0.775433  0.384893  1
  Sn  Sn11  1  0.714724  0.224567  0.615107  1
  Sn  Sn12  1  0.714724  0.275433  0.115107  1
  P  P13  1  0.212734  0.241391  0.701663  1
  P  P14  1  0.299340  0.278233  0.534491  1
  P  P15  1  0.212734  0.258609  0.201663  1
  P  P16  1  0.700660  0.778233  0.965509  1
  P  P17  1  0.299340  0.221767  0.034491  1
  P  P18  1  0.787266  0.741391  0.798337  1
  P  P19  1  0.700660  0.721767  0.465509  1
  P  P20  1  0.787266  0.758609  0.298337  1
  O  O21  1  0.936663  0.617749  0.783924  1
  O  O22  1  0.936663  0.882251  0.283924  1
  O  O23  1  0.209937  0.304730  0.929683  1
  O  O24  1  0.171103  0.204219  0.586690  1
  O  O25  1  0.223636  0.541205  0.719540  1
  O  O26  1  0.374051  0.095614  0.753903  1
  O  O27  1  0.335020  0.572180  0.546278  1
  O  O28  1  0.209937  0.195270  0.429683  1
  O  O29  1  0.171103  0.295781  0.086690  1
  O  O30  1  0.546684  0.604895  0.917573  1
  O  O31  1  0.223636  0.958795  0.219540  1
  O  O32  1  0.374051  0.404386  0.253903  1
  O  O33  1  0.453316  0.104895  0.582427  1
  O  O34  1  0.335020  0.927820  0.046278  1
  O  O35  1  0.664980  0.072180  0.953722  1
  O  O36  1  0.546684  0.895105  0.417573  1
  O  O37  1  0.625949  0.595614  0.746097  1
  O  O38  1  0.776364  0.041205  0.780460  1
  O  O39  1  0.453316  0.395105  0.082427  1
  O  O40  1  0.828897  0.704219  0.913310  1
  O  O41  1  0.790063  0.804730  0.570317  1
  O  O42  1  0.664980  0.427820  0.453722  1
  O  O43  1  0.625949  0.904386  0.246097  1
  O  O44  1  0.776364  0.458795  0.280460  1
  O  O45  1  0.828897  0.795781  0.413310  1
  O  O46  1  0.790063  0.695270  0.070317  1
  O  O47  1  0.063337  0.117749  0.716076  1
  O  O48  1  0.063337  0.382251  0.216076  1
