# generated using pymatgen
data_AcN
_symmetry_space_group_name_H-M   'P 1'
_cell_length_a   4.25530793
_cell_length_b   4.25531049
_cell_length_c   6.44632070
_cell_angle_alpha   89.99976267
_cell_angle_beta   90.00017583
_cell_angle_gamma   119.99946653
_symmetry_Int_Tables_number   1
_chemical_formula_structural   AcN
_chemical_formula_sum   'Ac2 N2'
_cell_volume   101.08974945
_cell_formula_units_Z   2
loop_
 _symmetry_equiv_pos_site_id
 _symmetry_equiv_pos_as_xyz
  1  'x, y, z'
loop_
 _atom_site_type_symbol
 _atom_site_label
 _atom_site_symmetry_multiplicity
 _atom_site_fract_x
 _atom_site_fract_y
 _atom_site_fract_z
 _atom_site_occupancy
  Ac  Ac1  1  0.000003  0.000002  0.989748  1
  Ac  Ac2  1  0.333332  0.666665  0.489769  1
  N  N3  1  0.999997  0.999996  0.385239  1
  N  N4  1  0.333333  0.666664  0.885243  1
