# generated using pymatgen
data_HgPd
_symmetry_space_group_name_H-M   'P 1'
_cell_length_a   5.32332245
_cell_length_b   5.32332245
_cell_length_c   5.32332245
_cell_angle_alpha   90.00000000
_cell_angle_beta   90.00000000
_cell_angle_gamma   90.00000000
_symmetry_Int_Tables_number   1
_chemical_formula_structural   HgPd
_chemical_formula_sum   'Hg4 Pd4'
_cell_volume   150.85104414
_cell_formula_units_Z   4
loop_
 _symmetry_equiv_pos_site_id
 _symmetry_equiv_pos_as_xyz
  1  'x, y, z'
loop_
 _atom_site_type_symbol
 _atom_site_label
 _atom_site_symmetry_multiplicity
 _atom_site_fract_x
 _atom_site_fract_y
 _atom_site_fract_z
 _atom_site_occupancy
  Pd  Pd1  1  0.152547  0.347453  0.652547  1
  Pd  Pd2  1  0.347453  0.652547  0.152547  1
  Pd  Pd3  1  0.652547  0.152547  0.347453  1
  Pd  Pd4  1  0.847453  0.847453  0.847453  1
  Hg  Hg5  1  0.843565  0.656435  0.343565  1
  Hg  Hg6  1  0.656435  0.343565  0.843565  1
  Hg  Hg7  1  0.343565  0.843565  0.656435  1
  Hg  Hg8  1  0.156435  0.156435  0.156435  1
