# generated using pymatgen
data_YbDy3
_symmetry_space_group_name_H-M   'P 1'
_cell_length_a   5.05672805
_cell_length_b   5.05672805
_cell_length_c   5.05672805
_cell_angle_alpha   90.00000000
_cell_angle_beta   90.00000000
_cell_angle_gamma   90.00000000
_symmetry_Int_Tables_number   1
_chemical_formula_structural   YbDy3
_chemical_formula_sum   'Yb1 Dy3'
_cell_volume   129.30305738
_cell_formula_units_Z   1
loop_
 _symmetry_equiv_pos_site_id
 _symmetry_equiv_pos_as_xyz
  1  'x, y, z'
loop_
 _atom_site_type_symbol
 _atom_site_label
 _atom_site_symmetry_multiplicity
 _atom_site_fract_x
 _atom_site_fract_y
 _atom_site_fract_z
 _atom_site_occupancy
  Yb  Yb1  1  0.000000  0.000000  0.000000  1
  Dy  Dy2  1  0.000000  0.500000  0.500000  1
  Dy  Dy3  1  0.500000  0.000000  0.500000  1
  Dy  Dy4  1  0.500000  0.500000  0.000000  1
